R1 1 0 0.5
V1 2 1 32
R3 2 0 0.5
R2 2 3 0.5
V2 3 0 20
.DC V1 0 3 0.1
.PLOT V(1)
